REMARK  11 active torsions:
REMARK  status: ('A' for Active; 'I' for Inactive)
REMARK    1  A    between atoms: N_8  and  C_21 
REMARK    2  A    between atoms: N_9  and  C_20 
REMARK    3  A    between atoms: N_9  and  C_24 
REMARK    4  A    between atoms: N_10  and  C_22 
REMARK    5  A    between atoms: N_10  and  C_30 
REMARK    6  A    between atoms: C_16  and  C_20 
REMARK    7  A    between atoms: C_21  and  C_22 
REMARK    8  A    between atoms: C_22  and  C_23 
REMARK    9  A    between atoms: C_24  and  C_28 
REMARK   10  A    between atoms: C_28  and  C_29 
REMARK   11  A    between atoms: C_30  and  C_34 
ROOT
ATOM      1  N   UNL d   1       3.540  -0.317   4.188  0.00  0.00    -0.195 NA
ATOM      2  C   UNL d   1       3.199  -0.446   1.570  0.00  0.00     0.177 C 
ATOM      3  C   UNL d   1       3.391  -0.374   3.038  0.00  0.00     0.085 C 
ENDROOT
BRANCH   2   4
ATOM      4  N   UNL d   1       1.852  -0.914   1.270  0.00  0.00    -0.298 N 
ATOM      5  H   UNL d   1       1.063  -0.468   1.746  0.00  0.00     0.150 HD
BRANCH   4   6
ATOM      6  C   UNL d   1       1.557  -1.736   0.205  0.00  0.00     0.235 C 
ATOM      7  O   UNL d   1       2.425  -2.133  -0.569  0.00  0.00    -0.274 OA
BRANCH   6   8
ATOM      8  C   UNL d   1       0.052  -2.092   0.076  0.00  0.00     0.166 A 
ATOM      9  N   UNL d   1      -0.702  -0.961  -0.497  0.00  0.00    -0.288 N 
ATOM     10  C   UNL d   1      -1.345  -1.294  -1.766  0.00  0.00     0.113 A 
ATOM     11  C   UNL d   1      -1.038  -2.736  -2.003  0.00  0.00     0.018 A 
ATOM     12  C   UNL d   1      -0.199  -3.238  -0.875  0.00  0.00     0.029 A 
ATOM     13  C   UNL d   1      -1.567  -3.861  -1.127  0.00  0.00    -0.025 A 
ATOM     14  C   UNL d   1      -1.593  -5.245  -1.730  0.00  0.00     0.011 C 
ATOM     15  C   UNL d   1      -2.707  -3.612  -0.169  0.00  0.00     0.011 C 
BRANCH   9  16
ATOM     16  C   UNL d   1      -1.030   0.120   0.295  0.00  0.00     0.237 C 
ATOM     17  O   UNL d   1      -0.615   0.194   1.460  0.00  0.00    -0.274 OA
BRANCH  16  18
ATOM     18  C   UNL d   1      -1.908   1.260  -0.295  0.00  0.00     0.165 C 
BRANCH  18  19
ATOM     19  N   UNL d   1      -2.861   1.597   0.769  0.00  0.00    -0.296 N 
ATOM     20  H   UNL d   1      -2.468   1.979   1.627  0.00  0.00     0.150 HD
BRANCH  19  21
ATOM     21  C   UNL d   1      -4.042   0.872   0.920  0.00  0.00     0.318 C 
ATOM     22  O   UNL d   1      -4.405   0.055   0.072  0.00  0.00    -0.266 OA
BRANCH  21  23
ATOM     23  C   UNL d   1      -4.843   1.196   2.202  0.00  0.00     0.469 C 
ATOM     24  F   UNL d   1      -5.229   0.079   2.876  0.00  0.00    -0.162 F 
ATOM     25  F   UNL d   1      -5.972   1.910   1.940  0.00  0.00    -0.162 F 
ATOM     26  F   UNL d   1      -4.112   1.943   3.080  0.00  0.00    -0.162 F 
ENDBRANCH  21  23
ENDBRANCH  19  21
ENDBRANCH  18  19
BRANCH  18  27
ATOM     27  C   UNL d   1      -1.092   2.503  -0.767  0.00  0.00    -0.011 C 
ATOM     28  C   UNL d   1      -0.243   3.127   0.356  0.00  0.00     0.013 C 
ATOM     29  C   UNL d   1      -2.064   3.584  -1.291  0.00  0.00     0.013 C 
ATOM     30  C   UNL d   1      -0.157   2.120  -1.930  0.00  0.00     0.013 C 
ENDBRANCH  18  27
ENDBRANCH  16  18
ENDBRANCH   9  16
ENDBRANCH   6   8
ENDBRANCH   4   6
ENDBRANCH   2   4
BRANCH   2  31
ATOM     31  C   UNL d   1       3.464   0.935   0.947  0.00  0.00     0.050 C 
BRANCH  31  32
ATOM     32  C   UNL d   1       3.593   0.917  -0.575  0.00  0.00     0.079 C 
ATOM     33  C   UNL d   1       4.861   0.231  -1.100  0.00  0.00     0.031 C 
ATOM     34  C   UNL d   1       5.106   0.922  -2.429  0.00  0.00     0.105 C 
ATOM     35  N   UNL d   1       4.630   2.251  -2.194  0.00  0.00    -0.315 N 
ATOM     36  C   UNL d   1       3.730   2.312  -1.151  0.00  0.00     0.216 C 
ATOM     37  H   UNL d   1       4.798   3.057  -2.785  0.00  0.00     0.149 HD
ATOM     38  O   UNL d   1       3.116   3.306  -0.810  0.00  0.00    -0.276 OA
ENDBRANCH  31  32
ENDBRANCH   2  31
TORSDOF 8
