@<TRIPOS>MOLECULE
*****
 67 69 0 0 0
SMALL
GASTEIGER

@<TRIPOS>ATOM
      1 F          -5.2288    0.0792    2.8759 F       1  UNL1       -0.1620
      2 F          -5.9717    1.9097    1.9404 F       1  UNL1       -0.1620
      3 F          -4.1118    1.9426    3.0805 F       1  UNL1       -0.1620
      4 O           2.4255   -2.1327   -0.5692 O.2     1  UNL1       -0.2737
      5 O          -0.6146    0.1937    1.4599 O.2     1  UNL1       -0.2735
      6 O          -4.4054    0.0546    0.0717 O.2     1  UNL1       -0.2660
      7 O           3.1159    3.3064   -0.8096 O.2     1  UNL1       -0.2755
      8 N          -0.7023   -0.9612   -0.4967 N.am    1  UNL1       -0.2878
      9 N           1.8520   -0.9141    1.2704 N.am    1  UNL1       -0.2983
     10 N          -2.8608    1.5968    0.7689 N.am    1  UNL1       -0.2962
     11 N           4.6304    2.2514   -2.1944 N.am    1  UNL1       -0.3151
     12 N           3.5397   -0.3172    4.1879 N.1     1  UNL1       -0.1946
     13 C          -0.1989   -3.2378   -0.8755 C.3     1  UNL1       -0.0037
     14 C          -1.5674   -3.8608   -1.1269 C.3     1  UNL1       -0.0250
     15 C          -1.0380   -2.7356   -2.0031 C.3     1  UNL1       -0.0142
     16 C           0.0522   -2.0921    0.0756 C.3     1  UNL1        0.1058
     17 C          -1.3453   -1.2935   -1.7661 C.3     1  UNL1        0.0192
     18 C          -1.5927   -5.2446   -1.7303 C.3     1  UNL1       -0.0592
     19 C          -2.7067   -3.6116   -0.1694 C.3     1  UNL1       -0.0592
     20 C           1.5572   -1.7355    0.2052 C.2     1  UNL1        0.2348
     21 C          -1.0298    0.1197    0.2948 C.2     1  UNL1        0.2371
     22 C          -1.9081    1.2596   -0.2946 C.3     1  UNL1        0.1047
     23 C          -1.0916    2.5034   -0.7675 C.3     1  UNL1       -0.0108
     24 C           3.1993   -0.4458    1.5696 C.3     1  UNL1        0.1109
     25 C          -0.2433    3.1267    0.3562 C.3     1  UNL1       -0.0579
     26 C          -2.0645    3.5836   -1.2908 C.3     1  UNL1       -0.0579
     27 C          -0.1567    2.1197   -1.9297 C.3     1  UNL1       -0.0579
     28 C           3.4643    0.9347    0.9468 C.3     1  UNL1       -0.0101
     29 C           3.5934    0.9167   -0.5754 C.3     1  UNL1        0.0396
     30 C          -4.0415    0.8718    0.9198 C.2     1  UNL1        0.3179
     31 C           3.3910   -0.3744    3.0375 C.1     1  UNL1        0.0849
     32 C           4.8610    0.2310   -1.1001 C.3     1  UNL1       -0.0262
     33 C           3.7304    2.3121   -1.1515 C.2     1  UNL1        0.2163
     34 C          -4.8433    1.1959    2.2018 C.3     1  UNL1        0.4694
     35 C           5.1062    0.9219   -2.4287 C.3     1  UNL1        0.0123
     36 H           0.6770   -3.8383   -1.0858 H       1  UNL1        0.0332
     37 H          -0.7411   -2.9491   -3.0211 H       1  UNL1        0.0325
     38 H          -0.3355   -2.3351    1.0723 H       1  UNL1        0.0600
     39 H          -0.9129   -0.6631   -2.5473 H       1  UNL1        0.0468
     40 H          -2.4243   -1.1281   -1.7151 H       1  UNL1        0.0468
     41 H          -2.5255   -5.4022   -2.2817 H       1  UNL1        0.0235
     42 H          -0.7613   -5.4045   -2.4255 H       1  UNL1        0.0235
     43 H          -1.5227   -6.0036   -0.9442 H       1  UNL1        0.0235
     44 H          -2.6881   -2.6200    0.2893 H       1  UNL1        0.0235
     45 H          -3.6640   -3.7134   -0.6915 H       1  UNL1        0.0235
     46 H          -2.6816   -4.3466    0.6422 H       1  UNL1        0.0235
     47 H          -2.4880    0.8899   -1.1433 H       1  UNL1        0.0600
     48 H           1.0628   -0.4681    1.7462 H       1  UNL1        0.1500
     49 H           3.9181   -1.1713    1.1718 H       1  UNL1        0.0657
     50 H          -2.4684    1.9793    1.6272 H       1  UNL1        0.1497
     51 H          -0.8591    3.4477    1.2024 H       1  UNL1        0.0236
     52 H           0.2941    4.0117   -0.0045 H       1  UNL1        0.0236
     53 H           0.5077    2.4260    0.7302 H       1  UNL1        0.0236
     54 H          -1.5196    4.4432   -1.6981 H       1  UNL1        0.0236
     55 H          -2.7171    3.9599   -0.4954 H       1  UNL1        0.0236
     56 H          -2.7020    3.1874   -2.0893 H       1  UNL1        0.0236
     57 H          -0.7231    1.7158   -2.7757 H       1  UNL1        0.0236
     58 H           0.3992    2.9909   -2.2953 H       1  UNL1        0.0236
     59 H           0.5789    1.3703   -1.6249 H       1  UNL1        0.0236
     60 H           4.3830    1.3635    1.3718 H       1  UNL1        0.0300
     61 H           2.6615    1.6244    1.2385 H       1  UNL1        0.0300
     62 H           2.7058    0.4795   -1.0444 H       1  UNL1        0.0395
     63 H           4.7513   -0.8511   -1.2110 H       1  UNL1        0.0288
     64 H           5.7061    0.4170   -0.4252 H       1  UNL1        0.0288
     65 H           6.1614    0.9431   -2.7111 H       1  UNL1        0.0462
     66 H           4.5126    0.4813   -3.2358 H       1  UNL1        0.0462
     67 H           4.7981    3.0569   -2.7852 H       1  UNL1        0.1487
@<TRIPOS>BOND
     1     1    34    1
     2     2    34    1
     3     3    34    1
     4     4    20    2
     5     5    21    2
     6     6    30    2
     7     7    33    2
     8     8    16    1
     9     8    17    1
    10     8    21   am
    11     9    20   am
    12     9    24    1
    13     9    48    1
    14    10    22    1
    15    10    30   am
    16    10    50    1
    17    11    33   am
    18    11    35    1
    19    11    67    1
    20    12    31    3
    21    13    14    1
    22    13    15    1
    23    13    16    1
    24    13    36    1
    25    14    15    1
    26    14    18    1
    27    14    19    1
    28    15    17    1
    29    15    37    1
    30    16    20    1
    31    16    38    1
    32    17    39    1
    33    17    40    1
    34    18    41    1
    35    18    42    1
    36    18    43    1
    37    19    44    1
    38    19    45    1
    39    19    46    1
    40    21    22    1
    41    22    23    1
    42    22    47    1
    43    23    25    1
    44    23    26    1
    45    23    27    1
    46    24    28    1
    47    24    31    1
    48    24    49    1
    49    25    51    1
    50    25    52    1
    51    25    53    1
    52    26    54    1
    53    26    55    1
    54    26    56    1
    55    27    57    1
    56    27    58    1
    57    27    59    1
    58    28    29    1
    59    28    60    1
    60    28    61    1
    61    29    32    1
    62    29    33    1
    63    29    62    1
    64    30    34    1
    65    32    35    1
    66    32    63    1
    67    32    64    1
    68    35    65    1
    69    35    66    1
